Program Version,EnergyPlus, Version 8.4.0-Unknown, YMD=2018.01.19 10:37,IDD_Version 8.4.0
   ** Warning ** GetSurfaceData: Entered Zone Floor Areas differ from calculated Zone Floor Area(s).
   **   ~~~   ** ...use Output:Diagnostics,DisplayExtraWarnings; to show more details on individual zones.
   ************* Note that the following warning(s) may/will occur if you have not enclosed your zone completely.
   ** Warning ** Entered Zone Volumes differ from calculated zone volume(s).
   **   ~~~   ** ...use Output:Diagnostics,DisplayExtraWarnings; to show more details on individual zones.
   ** Warning ** CheckUsedConstructions: There are 5 nominally unused constructions in input.
   **   ~~~   ** For explicit details on each unused construction, use Output:Diagnostics,DisplayExtraWarnings;
   ** Warning ** Output:Meter: invalid Name="GAS:FACILITY" - not found.
   ** Warning ** Output:Meter: invalid Name="GAS:FACILITY" - not found.
   ** Warning ** Output:Meter: invalid Name="GAS:FACILITY" - not found.
   ** Warning ** Output:Meter: invalid Name="GAS:FACILITY" - not found.
   ** Warning ** Output:Meter: invalid Name="GAS:FACILITY" - not found.
   ** Warning ** Output:Meter: invalid Name="ELECTRIC EQUIPMENT#BLOCK1:ZONE1#07:INTERIOREQUIPMENT*" - not found.
   ** Warning ** Output:Meter: invalid Name="ELECTRIC EQUIPMENT#BLOCK1:ZONE1#07:INTERIOREQUIPMENT*" - not found.
   ** Warning ** Output:Meter: invalid Name="ELECTRIC EQUIPMENT#BLOCK1:ZONE1#07:INTERIOREQUIPMENT*" - not found.
   ** Warning ** Output:Meter: invalid Name="ELECTRIC EQUIPMENT#BLOCK1:ZONE1#07:INTERIOREQUIPMENT*" - not found.
   ** Warning ** Output:Meter: invalid Name="ELECTRIC EQUIPMENT#BLOCK1:ZONE1#07:INTERIOREQUIPMENT*" - not found.
   ************* Testing Individual Branch Integrity
   ************* All Branches passed integrity testing
   ************* Testing Individual Supply Air Path Integrity
   ************* All Supply Air Paths passed integrity testing
   ************* Testing Individual Return Air Path Integrity
   ************* All Return Air Paths passed integrity testing
   ************* No node connection errors were found.
   ************* Beginning Simulation
   ************* Simulation Error Summary *************
   ** Warning ** The following Report Variables were requested but not generated
   **   ~~~   ** because IDF did not contain these elements or misspelled variable name -- check .rdd file
   ************* Key=*, VarName=ZONE VENTILATION FAN ELECTRIC ENERGY, Frequency=Timestep
   ************* Key=*, VarName=FAN ELECTRIC POWER, Frequency=Timestep
   ************* Key=*, VarName=ZONE VENTILATION FAN ELECTRIC ENERGY, Frequency=Hourly
   ************* Key=*, VarName=FAN ELECTRIC POWER, Frequency=Hourly
   ************* Key=*, VarName=ZONE VENTILATION FAN ELECTRIC ENERGY, Frequency=Daily
   ************* Key=*, VarName=FAN ELECTRIC POWER, Frequency=Daily
   ************* Key=*, VarName=ZONE VENTILATION FAN ELECTRIC ENERGY, Frequency=Monthly
   ************* Key=*, VarName=FAN ELECTRIC POWER, Frequency=Monthly
   ************* Key=*, VarName=ZONE VENTILATION FAN ELECTRIC ENERGY, Frequency=Annual
   ************* Key=*, VarName=FAN ELECTRIC POWER, Frequency=Annual
   ************* Key=BLOCK1:ZONE1, VarName=ZONE OTHER EQUIPMENT TOTAL HEATING ENERGY, Frequency=Timestep
   ************* Key=BLOCK1:ZONE1, VarName=ZONE OTHER EQUIPMENT TOTAL HEATING ENERGY, Frequency=Hourly
   ************* Key=BLOCK1:ZONE1, VarName=ZONE OTHER EQUIPMENT TOTAL HEATING ENERGY, Frequency=Daily
   ************* Key=BLOCK1:ZONE1, VarName=ZONE OTHER EQUIPMENT TOTAL HEATING ENERGY, Frequency=Monthly
   ************* Key=BLOCK1:ZONE1, VarName=ZONE OTHER EQUIPMENT TOTAL HEATING ENERGY, Frequency=Annual
   ************* There are 1 unused objects in input.
   ************* Use Output:Diagnostics,DisplayUnusedObjects; to see them.
   ************* There are 8 unused schedules in input.
   ************* There are 3 unused week schedules in input.
   ************* There are 5 unused day schedules in input.
   ************* Use Output:Diagnostics,DisplayUnusedSchedules; to see them.
   *************
   ************* ===== Final Error Summary =====
   ************* The following error categories occurred.  Consider correcting or noting.
   ************* Nominally Unused Constructions
   ************* ..The nominally unused constructions warning is provided to alert you to potential conditions that can cause
   ************* ..extra time during simulation. Each construction is calculated by the algorithm indicated in the HeatBalanceAlgorithm
   ************* ..object. You may remove the constructions indicated (when you use the DisplayExtraWarnings option).
   *************
   ************* EnergyPlus Warmup Error Summary. During Warmup: 0 Warning; 0 Severe Errors.
   ************* EnergyPlus Sizing Error Summary. During Sizing: 0 Warning; 0 Severe Errors.
   ************* EnergyPlus Completed Successfully-- 14 Warning; 0 Severe Errors; Elapsed Time=00hr 00min 25.05sec
