  0
SECTION
  2
ENTITIES
999
DXF created from EnergyPlus
999
Program Version,EnergyPlus, Version 8.4.0-Unknown, YMD=2018.01.19 10:37
999
Polygon Action,TRIANGULATE3DFACE
999
Color Scheme,Default
999
Text - True North
  0
TEXT
  8
1
  6
Continuous
 62
  3
 10
      -14.17827
 20
       -2.20763
 30
        0.10000
 40
 .25
  1
True North
 41
 0.0
  7
MONOTXT
210
0.0
220
0.0
230
1.0
999
Text - Building Title
  0
TEXT
  8
1
  6
Continuous
 62
  3
 10
      -17.17827
 20
       -6.20763
 30
        0.10000
 40
 .4
  1
Building - Building
 41
 0.0
  7
MONOTXT
210
0.0
220
0.0
230
1.0
999
North Arrow Stem
  0
3DFACE
  8
1
 62
  3
 10
      -13.17827
 20
       -2.20763
 30
        0.10000
 11
      -13.17827
 21
       -2.20763
 31
        0.00000
 12
      -13.17827
 22
       -5.20763
 32
        0.00000
 13
      -13.17827
 23
       -5.20763
 33
        0.10000
999
North Arrow Head 1
  0
3DFACE
  8
1
 62
  3
 10
      -13.17827
 20
       -2.20763
 30
        0.10000
 11
      -13.17827
 21
       -2.20763
 31
        0.00000
 12
      -13.67827
 22
       -3.07365
 32
        0.00000
 13
      -13.67827
 23
       -3.07365
 33
        0.10000
999
North Arrow Head 2
  0
3DFACE
  8
1
 62
  3
 10
      -13.17827
 20
       -2.20763
 30
        0.10000
 11
      -13.17827
 21
       -2.20763
 31
        0.00000
 12
      -12.67827
 22
       -3.07365
 32
        0.00000
 13
      -12.67827
 23
       -3.07365
 33
        0.10000
999
North Arrow Side 1
  0
3DFACE
  8
1
 62
  3
 10
      -13.67827
 20
       -0.70763
 30
        0.10000
 11
      -13.67827
 21
       -0.70763
 31
        0.00000
 12
      -13.67827
 22
       -1.70763
 32
        0.00000
 13
      -13.67827
 23
       -1.70763
 33
        0.10000
999
North Arrow Side 2
  0
3DFACE
  8
1
 62
  3
 10
      -13.67827
 20
       -0.70763
 30
        0.10000
 11
      -13.67827
 21
       -0.70763
 31
        0.00000
 12
      -12.67827
 22
       -1.70763
 32
        0.00000
 13
      -12.67827
 23
       -1.70763
 33
        0.10000
999
North Arrow Side 3
  0
3DFACE
  8
1
 62
  3
 10
      -12.67827
 20
       -0.70763
 30
        0.10000
 11
      -12.67827
 21
       -0.70763
 31
        0.00000
 12
      -12.67827
 22
       -1.70763
 32
        0.00000
 13
      -12.67827
 23
       -1.70763
 33
        0.10000
999
Zone Names
999
Zone=1:BLOCK1_ZONE1
999
BLOCK1:ZONE1:BLOCK1:ZONE1_WALL_2_0_0
  0
3DFACE
  8
BLOCK1_ZONE1
 62
 43
 10
        0.32173
 20
       -5.20763
 30
        2.80000
 11
        0.32173
 21
       -5.20763
 31
        0.00000
 12
        0.32173
 22
       -0.70763
 32
        0.00000
 13
        0.32173
 23
       -0.70763
 33
        2.80000
999
BLOCK1:ZONE1:BLOCK1:ZONE1_WALL_3_0_0
  0
3DFACE
  8
BLOCK1_ZONE1
 62
 43
 10
        0.32173
 20
       -0.70763
 30
        2.80000
 11
        0.32173
 21
       -0.70763
 31
        0.00000
 12
       -3.17827
 22
       -0.70763
 32
        0.00000
 13
       -3.17827
 23
       -0.70763
 33
        2.80000
999
BLOCK1:ZONE1:BLOCK1:ZONE1_WALL_4_0_0
  0
3DFACE
  8
BLOCK1_ZONE1
 62
 43
 10
       -3.17827
 20
       -0.70763
 30
        2.80000
 11
       -3.17827
 21
       -0.70763
 31
        0.00000
 12
       -3.17827
 22
       -5.20763
 32
        0.00000
 13
       -3.17827
 23
       -5.20763
 33
        2.80000
999
BLOCK1:ZONE1:BLOCK1:ZONE1_WALL_5_0_0
  0
3DFACE
  8
BLOCK1_ZONE1
 62
 43
 10
       -3.17827
 20
       -5.20763
 30
        2.80000
 11
       -3.17827
 21
       -5.20763
 31
        0.00000
 12
        0.32173
 22
       -5.20763
 32
        0.00000
 13
        0.32173
 23
       -5.20763
 33
        2.80000
999
BLOCK1:ZONE1:BLOCK1:ZONE1_WALL_5_0_0_0_0_0_WIN
  0
3DFACE
  8
BLOCK1_ZONE1
 62
143
 10
       -2.83107
 20
       -5.20763
 30
        1.89064
 11
       -2.83107
 21
       -5.20763
 31
        0.84000
 12
       -0.02547
 22
       -5.20763
 32
        0.84000
 13
       -0.02547
 23
       -5.20763
 33
        1.89064
999
BLOCK1:ZONE1:BLOCK1:ZONE1_GROUNDFLOOR_0_0_0
  0
3DFACE
  8
BLOCK1_ZONE1
 62
  8
 10
        0.32173
 20
       -0.70763
 30
        0.00000
 11
        0.32173
 21
       -5.20763
 31
        0.00000
 12
       -3.17827
 22
       -5.20763
 32
        0.00000
 13
       -3.17827
 23
       -0.70763
 33
        0.00000
999
BLOCK1:ZONE1:BLOCK1:ZONE1_ROOF_1_0_0
  0
3DFACE
  8
BLOCK1_ZONE1
 62
 15
 10
       -3.17827
 20
       -0.70763
 30
        2.80000
 11
       -3.17827
 21
       -5.20763
 31
        2.80000
 12
        0.32173
 22
       -5.20763
 32
        2.80000
 13
        0.32173
 23
       -0.70763
 33
        2.80000
999
BLOCK1:ZONE1:DayRefPt:1
  0
CIRCLE
  8
BLOCK1_ZONE1
 62
 10
 10
       -0.92800
 20
       -2.45800
 30
        0.80000
 40
        0.20000
  0
ENDSEC
  0
EOF
